[General]
//preload-ned-files=*.ned
network = physim
sim-time-limit = 60s
cpu-time-limit= 300s
ini-warnings = no

[Cmdenv]
runs-to-execute = 1,2
#express-mode = yes
module-messages = yes
event-banners = yes

[Tkenv]
default-run=1
event-banners = no

[Parameters]
; General loglevel for the whole sim
physim.Dummy.LogLevel = 8

physim.SS.ssIPv6.BurstInterval = 0.012
physim.SS.ssIPv6.BurstSize = 2
physim.SS.ssIPv6.BurstPacketSize = 100

physim.BS[*].bsIPv6.BurstInterval = 0.016
physim.BS[*].bsIPv6.BurstSize = 3
physim.BS[*].bsIPv6.BurstPacketSize = 80

physim.BS[*].WMaxCtrlBS.MinDelayCdma = 0.005
physim.BS[*].WMaxCtrlBS.MaxDelayCdma = 0.005
physim.BS[*].WMaxCtrlBS.MinDelaySbc  = 0.010
physim.BS[*].WMaxCtrlBS.MaxDelaySbc  = 0.030
physim.BS[*].WMaxCtrlBS.MinDelayReg  = 0.030
physim.BS[*].WMaxCtrlBS.MaxDelayReg  = 0.060
physim.BS[*].WMaxCtrlBS.MinDelayHoRsp= 0.050
physim.BS[*].WMaxCtrlBS.MaxDelayHoRsp= 0.080

physim.SS.ssMac.FrameLength=0.005
physim.BS[*].bsMac.FrameLength=0.005
physim.numBS = 3

[Run 1]
**.gen.sendIaTime = exponential(0.1)
**.gen.msgLength = 100
output-vector-file = wimax.vec

[OutVectors]
# this section defines, if particular values (i.e. vectors) should be logged or not
**.ssIpv6.ssIPv6 Sent Packets.enabled = yes
**.ssIPv6 Sent Bytes.enabled = yes
**.ssIPv6 Received Packets.enabled = yes
**.ssIPv6 Received Bytes.enabled = yes
**.bsIPv6 Sent Packets.enabled = no
**.bsIPv6 Sent Bytes.enabled = no
**.bsIPv6 Received Packets.enabled = no
**.bsIPv6 Received Bytes.enabled = no

